/*--------------------------------*- C++ -*----------------------------------*\
| =========                 |                                                 |
| \\      /  F ield         | OpenFOAM: The Open Source CFD Toolbox           |
|  \\    /   O peration     | Version:  2.4.0                                 |
|   \\  /    A nd           | Web:      www.OpenFOAM.org                      |
|    \\/     M anipulation  |                                                 |
\*---------------------------------------------------------------------------*/
FoamFile
{
    version     2.0;
    format      ascii;
    class       dictionary;
    location    "system";
    object      fvSchemes;
}
// * * * * * * * * * * * * * * * * * * * * * * * * * * * * * * * * * * * * * //

ddtSchemes
{
    default         steadyState;
}

gradSchemes
{
    default         Gauss linear;
    grad(p)         Gauss linear;
}

divSchemes
{
    default         none;

    div(phi,U)      bounded Gauss upwind;   // this one
    div((nuEff*dev(T(grad(U))))) Gauss linear;
    div(phi,epsilon) bounded Gauss upwind;
    div(phi,k)      bounded Gauss upwind;
    div(phi,Tf) bounded Gauss upwind;
    div((phi|sqr(eps)),U) bounded Gauss upwind;

//    div(phi,Tf) Gauss vanLeer;
//    div(phi,Ts) Gauss vanLeer;
}

laplacianSchemes
{
    default         Gauss linear corrected;
    laplacian(DT,T) Gauss linear corrected;
}

interpolationSchemes
{
    default         linear;
}

snGradSchemes
{
    default         corrected;
}

fluxRequired
{
    default         no;
    p               ;
//    T               ;
}


// ************************************************************************* //
